
**** 01/18/20 13:12:09 ****** PSpice Lite (October 2012) ****** ID# 10813 ****

 ** Profile: "SCHEMATIC1-nor"  [ E:\VLSI\NOR\nor-pspicefiles\schematic1\nor.sim ] 


 ****     CIRCUIT DESCRIPTION


******************************************************************************




** Creating circuit file "nor.cir" 
** WARNING: THIS AUTOMATICALLY GENERATED FILE MAY BE OVERWRITTEN BY SUBSEQUENT SIMULATIONS

*Libraries: 
* Profile Libraries :
* Local Libraries :
* From [PSPICE NETLIST] section of C:\Users\arik0\AppData\Roaming\SPB_16.6\cdssetup\OrCAD_PSpice/16.6.0/PSpice.ini file:
.lib "nomd.lib" 

*Analysis directives: 
.TRAN  0 10ns 0 
.OPTIONS ADVCONV
.PROBE64 V(alias(*)) I(alias(*)) W(alias(*)) D(alias(*)) NOISE(alias(*)) 
.INC "..\SCHEMATIC1.net" 



**** INCLUDING SCHEMATIC1.net ****
* source NOR
M_M1         N000402 N00347 N00310 N00310 MbreakP           
M_M2         N00317 N00381 N000402 N000402 MbreakP           
M_M4         N00317 N00381 0 0 MbreakN           
M_M5         N00317 N00347 0 0 MbreakN           
V_V1         N00310 0 5Vdc
V_V2         N00347 0  
+PULSE 4.8 4.8 0 0 0 0 0
V_V3         N00381 0  
+PULSE 5 5 0 0 0 0 0

**** RESUMING nor.cir ****
.END

**** 01/18/20 13:12:09 ****** PSpice Lite (October 2012) ****** ID# 10813 ****

 ** Profile: "SCHEMATIC1-nor"  [ E:\VLSI\NOR\nor-pspicefiles\schematic1\nor.sim ] 


 ****     MOSFET MODEL PARAMETERS


******************************************************************************




               MbreakP         MbreakN         
               PMOS            NMOS            
       LEVEL    1               1            
           L  100.000000E-06  100.000000E-06 
           W  100.000000E-06  100.000000E-06 
         VTO    0               0            
          KP   20.000000E-06   20.000000E-06 
       GAMMA    0               0            
         PHI     .6              .6          
      LAMBDA    0               0            
          IS   10.000000E-15   10.000000E-15 
          JS    0               0            
          PB     .8              .8          
        PBSW     .8              .8          
          CJ    0               0            
        CJSW    0               0            
        CGSO    0               0            
        CGDO    0               0            
        CGBO    0               0            
         TOX    0               0            
          XJ    0               0            
       UCRIT   10.000000E+03   10.000000E+03 
      DIOMOD    1               1            
         VFB    0               0            
        LETA    0               0            
        WETA    0               0            
          U0    0               0            
        TEMP    0               0            
         VDD    5               5            
       XPART    0               0            


**** 01/18/20 13:12:09 ****** PSpice Lite (October 2012) ****** ID# 10813 ****

 ** Profile: "SCHEMATIC1-nor"  [ E:\VLSI\NOR\nor-pspicefiles\schematic1\nor.sim ] 


 ****     INITIAL TRANSIENT SOLUTION       TEMPERATURE =   27.000 DEG C


******************************************************************************



 NODE   VOLTAGE     NODE   VOLTAGE     NODE   VOLTAGE     NODE   VOLTAGE


(N00310)    5.0000 (N00317) 25.56E-09 (N00347)    4.8000 (N00381)    5.0000     

(N000402)    5.0000                   




    VOLTAGE SOURCE CURRENTS
    NAME         CURRENT

    V_V1        -5.010E-12
    V_V2         0.000E+00
    V_V3         0.000E+00

    TOTAL POWER DISSIPATION   2.51E-11  WATTS



          JOB CONCLUDED

**** 01/18/20 13:12:09 ****** PSpice Lite (October 2012) ****** ID# 10813 ****

 ** Profile: "SCHEMATIC1-nor"  [ E:\VLSI\NOR\nor-pspicefiles\schematic1\nor.sim ] 


 ****     JOB STATISTICS SUMMARY


******************************************************************************



  Total job time (using Solver 1)   =         .02
