
**** 01/18/20 12:50:14 ****** PSpice Lite (October 2012) ****** ID# 10813 ****

 ** Profile: "SCHEMATIC1-cmos"  [ E:\VLSI\CMOS\CMOS-PSpiceFiles\SCHEMATIC1\cmos.sim ] 


 ****     CIRCUIT DESCRIPTION


******************************************************************************




** Creating circuit file "cmos.cir" 
** WARNING: THIS AUTOMATICALLY GENERATED FILE MAY BE OVERWRITTEN BY SUBSEQUENT SIMULATIONS

*Libraries: 
* Profile Libraries :
* Local Libraries :
* From [PSPICE NETLIST] section of C:\Users\arik0\AppData\Roaming\SPB_16.6\cdssetup\OrCAD_PSpice/16.6.0/PSpice.ini file:
.lib "nomd.lib" 

*Analysis directives: 
.DC LIN V_V1 0 5 .1 
+ LIN V_V2 0 5 .` 
---------------$
ERROR(ORPSIM-16152): Invalid number
.OPTIONS ADVCONV
.PROBE64 V(alias(*)) I(alias(*)) W(alias(*)) D(alias(*)) NOISE(alias(*)) 
.INC "..\SCHEMATIC1.net" 



**** INCLUDING SCHEMATIC1.net ****
* source CMOS
M_M1         N000402 N00174 N00178 N00178 MbreakP           
M_M2         N000402 N00174 0 0 MbreakN           
V_V1         N00178 0 5Vdc
V_V2         N00174 0 0Vdc

**** RESUMING cmos.cir ****
.END
